<?xml version="1.0" encoding="UTF-8"?>

<!-- generated on 2025-06-20 20:06:58 by Eclipse SUMO netconvert Version 1.20.0
<configuration xmlns:xsi="http://www.w3.org/2001/XMLSchema-instance" xsi:noNamespaceSchemaLocation="http://sumo.dlr.de/xsd/netconvertConfiguration.xsd">

    <input>
        <osm-files value="apaca.osm"/>
    </input>

    <output>
        <output-file value="apaca.net.xml"/>
    </output>

    <projection>
        <proj.utm value="true"/>
    </projection>

</configuration>
-->

<net version="1.20" junctionCornerDetail="5" limitTurnSpeed="5.50" xmlns:xsi="http://www.w3.org/2001/XMLSchema-instance" xsi:noNamespaceSchemaLocation="http://sumo.dlr.de/xsd/net_file.xsd">

    <location netOffset="-423588.53,-4919949.12" convBoundary="0.00,0.00,1654.62,1553.56" origBoundary="26.039898,44.428925,26.060552,44.442962" projParameter="+proj=utm +zone=35 +ellps=WGS84 +datum=WGS84 +units=m +no_defs"/>

    <type id="highway.footway" priority="1" numLanes="1" speed="2.78" allow="pedestrian" oneway="1" width="2.00"/>
    <type id="highway.living_street" priority="2" numLanes="1" speed="2.78" disallow="tram rail_urban rail rail_electric rail_fast ship container cable_car subway aircraft wheelchair scooter drone" oneway="0"/>
    <type id="highway.primary" priority="12" numLanes="2" speed="27.78" disallow="tram rail_urban rail rail_electric rail_fast ship container cable_car subway aircraft wheelchair scooter drone" oneway="0"/>
    <type id="highway.secondary" priority="11" numLanes="1" speed="27.78" disallow="tram rail_urban rail rail_electric rail_fast ship container cable_car subway aircraft wheelchair scooter drone" oneway="0"/>
    <type id="highway.service" priority="1" numLanes="1" speed="5.56" allow="pedestrian delivery bicycle" oneway="0"/>
    <type id="highway.steps" priority="1" numLanes="1" speed="1.39" allow="pedestrian" oneway="1" width="2.00"/>
    <type id="railway.subway" priority="18" numLanes="1" speed="27.78" allow="subway" oneway="1"/>
    <type id="railway.tram" priority="17" numLanes="1" speed="13.89" allow="tram" oneway="1"/>

    <edge id=":12154445435_0" function="internal">
        <lane id=":12154445435_0_0" index="0" allow="pedestrian delivery bicycle" speed="5.56" length="3.36" shape="1118.95,671.00 1118.93,667.64"/>
    </edge>
    <edge id=":12154445435_1" function="internal">
        <lane id=":12154445435_1_0" index="0" allow="pedestrian delivery bicycle" speed="3.65" length="1.44" shape="1118.95,671.00 1119.74,669.80"/>
    </edge>
    <edge id=":12154445435_4" function="internal">
        <lane id=":12154445435_4_0" index="0" allow="pedestrian delivery bicycle" speed="3.65" length="3.23" shape="1119.74,669.80 1120.54,669.39 1121.34,669.78 1122.15,670.98"/>
    </edge>
    <edge id=":12154445435_2" function="internal">
        <lane id=":12154445435_2_0" index="0" allow="pedestrian delivery bicycle" speed="5.56" length="3.36" shape="1122.13,667.62 1122.15,670.98"/>
    </edge>
    <edge id=":12154445435_3" function="internal">
        <lane id=":12154445435_3_0" index="0" allow="pedestrian delivery bicycle" speed="3.65" length="1.44" shape="1122.13,667.62 1121.34,668.82"/>
    </edge>
    <edge id=":12154445435_5" function="internal">
        <lane id=":12154445435_5_0" index="0" allow="pedestrian delivery bicycle" speed="3.65" length="3.23" shape="1121.34,668.82 1120.54,669.23 1119.74,668.83 1118.93,667.64"/>
    </edge>
    <edge id=":1341209724_0" function="internal">
        <lane id=":1341209724_0_0" index="0" disallow="tram rail_urban rail rail_electric rail_fast ship container cable_car subway aircraft wheelchair scooter drone" speed="13.89" length="5.15" shape="1142.16,597.12 1142.12,591.99"/>
        <lane id=":1341209724_0_1" index="1" disallow="tram rail_urban rail rail_electric rail_fast ship container cable_car subway aircraft wheelchair scooter drone" speed="13.89" length="5.15" shape="1145.36,597.12 1145.32,591.94"/>
    </edge>
    <edge id=":2534599898_0" function="internal">
        <lane id=":2534599898_0_0" index="0" allow="pedestrian delivery bicycle" speed="3.65" length="4.67" shape="988.73,546.96 987.52,546.18 987.10,545.39 987.49,544.58 988.68,543.76"/>
    </edge>
    <edge id=":2534599899_0" function="internal">
        <lane id=":2534599899_0_0" index="0" disallow="tram rail_urban rail rail_electric rail_fast ship container cable_car subway aircraft wheelchair scooter drone" speed="13.89" length="6.23" shape="1141.44,545.88 1141.32,539.67"/>
        <lane id=":2534599899_0_1" index="1" disallow="tram rail_urban rail rail_electric rail_fast ship container cable_car subway aircraft wheelchair scooter drone" speed="13.89" length="6.23" shape="1144.64,545.83 1144.52,539.60"/>
    </edge>
    <edge id=":2534599899_2" function="internal">
        <lane id=":2534599899_2_0" index="0" allow="pedestrian delivery bicycle" speed="4.77" length="4.45" shape="1138.99,542.80 1140.04,542.61 1140.77,542.02 1141.20,541.04 1141.32,539.67"/>
    </edge>
    <edge id=":2534602374_0" function="internal">
        <lane id=":2534602374_0_0" index="0" allow="pedestrian delivery bicycle" speed="5.06" length="5.02" shape="1032.87,549.59 1032.67,548.22 1032.08,547.24 1031.11,546.66 1029.76,546.47"/>
    </edge>
    <edge id=":2534602374_1" function="internal">
        <lane id=":2534602374_1_0" index="0" allow="pedestrian delivery bicycle" speed="5.56" length="10.19" shape="1032.87,549.59 1033.25,546.82 1034.43,544.84 1036.40,543.66 1039.17,543.26"/>
    </edge>
    <edge id=":2534602374_2" function="internal">
        <lane id=":2534602374_2_0" index="0" allow="pedestrian delivery bicycle" speed="3.65" length="4.67" shape="1032.87,549.59 1033.66,548.38 1034.46,547.98 1035.26,548.37 1036.07,549.57"/>
    </edge>
    <edge id=":2534602374_3" function="internal">
        <lane id=":2534602374_3_0" index="0" allow="pedestrian delivery bicycle" speed="5.03" length="5.01" shape="1039.16,546.46 1037.80,546.66 1036.83,547.24 1036.26,548.21 1036.07,549.57"/>
    </edge>
    <edge id=":2534602374_4" function="internal">
        <lane id=":2534602374_4_0" index="0" allow="pedestrian delivery bicycle" speed="5.56" length="9.40" shape="1039.16,546.46 1029.76,546.47"/>
    </edge>
    <edge id=":2534602374_5" function="internal">
        <lane id=":2534602374_5_0" index="0" allow="pedestrian delivery bicycle" speed="3.65" length="4.67" shape="1039.16,546.46 1037.96,545.66 1037.57,544.86 1037.97,544.06 1039.17,543.26"/>
    </edge>
    <edge id=":2534602374_6" function="internal">
        <lane id=":2534602374_6_0" index="0" allow="pedestrian delivery bicycle" speed="5.56" length="9.41" shape="1029.75,543.27 1039.17,543.26"/>
    </edge>
    <edge id=":2534602374_7" function="internal">
        <lane id=":2534602374_7_0" index="0" allow="pedestrian delivery bicycle" speed="5.56" length="10.17" shape="1029.75,543.27 1032.50,543.66 1034.47,544.84 1035.66,546.81 1036.07,549.57"/>
    </edge>
    <edge id=":2534602374_8" function="internal">
        <lane id=":2534602374_8_0" index="0" allow="pedestrian delivery bicycle" speed="3.65" length="4.67" shape="1029.75,543.27 1030.95,544.06 1031.36,544.86 1030.96,545.66 1029.76,546.47"/>
    </edge>
    <edge id=":2534602376_0" function="internal">
        <lane id=":2534602376_0_0" index="0" allow="pedestrian delivery bicycle" speed="5.05" length="4.99" shape="1080.44,549.60 1080.24,548.24 1079.66,547.28 1078.69,546.70 1077.34,546.50"/>
    </edge>
    <edge id=":2534602376_1" function="internal">
        <lane id=":2534602376_1_0" index="0" allow="pedestrian delivery bicycle" speed="5.56" length="9.65" shape="1080.44,549.60 1080.76,546.91 1081.73,544.83 1083.35,543.34 1085.63,542.44"/>
    </edge>
    <edge id=":2534602376_2" function="internal">
        <lane id=":2534602376_2_0" index="0" allow="pedestrian delivery bicycle" speed="3.65" length="4.67" shape="1080.44,549.60 1081.24,548.39 1082.04,547.99 1082.84,548.38 1083.64,549.58"/>
    </edge>
    <edge id=":2534602376_3" function="internal">
        <lane id=":2534602376_3_0" index="0" allow="pedestrian delivery bicycle" speed="5.56" length="5.28" shape="1086.34,545.57 1085.15,546.05 1084.31,546.88 1083.81,548.05 1083.64,549.58"/>
    </edge>
    <edge id=":2534602376_4" function="internal">
        <lane id=":2534602376_4_0" index="0" allow="pedestrian delivery bicycle" speed="5.56" length="9.09" shape="1086.34,545.57 1083.71,546.14 1081.88,546.41 1080.03,546.50 1077.34,546.50"/>
    </edge>
    <edge id=":2534602376_5" function="internal">
        <lane id=":2534602376_5_0" index="0" allow="pedestrian delivery bicycle" speed="3.65" length="4.67" shape="1086.34,545.57 1084.99,545.05 1084.43,544.36 1084.64,543.49 1085.63,542.44"/>
    </edge>
    <edge id=":2534602376_6" function="internal">
        <lane id=":2534602376_6_0" index="0" allow="pedestrian delivery bicycle" speed="5.56" length="8.37" shape="1077.34,543.30 1079.82,543.30 1081.52,543.22 1083.21,542.97 1085.63,542.44"/>
    </edge>
    <edge id=":2534602376_7" function="internal">
        <lane id=":2534602376_7_0" index="0" allow="pedestrian delivery bicycle" speed="5.56" length="10.13" shape="1077.34,543.30 1080.09,543.70 1082.05,544.87 1083.24,546.84 1083.64,549.58"/>
    </edge>
    <edge id=":2534602376_8" function="internal">
        <lane id=":2534602376_8_0" index="0" allow="pedestrian delivery bicycle" speed="3.65" length="4.67" shape="1077.34,543.30 1078.54,544.10 1078.94,544.90 1078.54,545.70 1077.34,546.50"/>
    </edge>
    <edge id=":2534602378_0" function="internal">
        <lane id=":2534602378_0_0" index="0" allow="pedestrian delivery bicycle" speed="5.56" length="9.17" shape="1092.70,538.82 1093.14,540.59 1094.48,541.85 1096.71,542.62 1099.84,542.88"/>
    </edge>
    <edge id=":2534602378_1" function="internal">
        <lane id=":2534602378_1_0" index="0" allow="pedestrian delivery bicycle" speed="5.56" length="9.08" shape="1092.70,538.82 1092.36,541.21 1091.38,543.09 1089.76,544.46 1087.49,545.30"/>
    </edge>
    <edge id=":2534602378_2" function="internal">
        <lane id=":2534602378_2_0" index="0" allow="pedestrian delivery bicycle" speed="3.65" length="4.67" shape="1092.70,538.82 1091.89,540.01 1091.09,540.41 1090.29,540.00 1089.50,538.80"/>
    </edge>
    <edge id=":2534602378_3" function="internal">
        <lane id=":2534602378_3_0" index="0" allow="pedestrian delivery bicycle" speed="5.34" length="4.74" shape="1086.79,542.18 1087.97,541.74 1088.81,541.03 1089.33,540.05 1089.50,538.80"/>
    </edge>
    <edge id=":2534602378_4" function="internal">
        <lane id=":2534602378_4_0" index="0" allow="pedestrian delivery bicycle" speed="5.56" length="13.14" shape="1086.79,542.18 1090.18,541.82 1093.27,542.11 1096.38,542.61 1099.84,542.88"/>
    </edge>
    <edge id=":2534602378_5" function="internal">
        <lane id=":2534602378_5_0" index="0" allow="pedestrian delivery bicycle" speed="3.65" length="4.67" shape="1086.79,542.18 1088.13,542.70 1088.70,543.39 1088.49,544.26 1087.49,545.30"/>
    </edge>
    <edge id=":2534602381_0" function="internal">
        <lane id=":2534602381_0_0" index="0" allow="pedestrian delivery bicycle" speed="5.56" length="9.40" shape="1032.93,560.68 1032.88,551.28"/>
    </edge>
    <edge id=":2534602381_1" function="internal">
        <lane id=":2534602381_1_0" index="0" allow="pedestrian delivery bicycle" speed="5.56" length="10.17" shape="1032.93,560.68 1033.31,557.92 1034.49,555.94 1036.45,554.75 1039.21,554.35"/>
    </edge>
    <edge id=":2534602381_2" function="internal">
        <lane id=":2534602381_2_0" index="0" allow="pedestrian delivery bicycle" speed="3.65" length="4.67" shape="1032.93,560.68 1033.73,559.48 1034.52,559.07 1035.33,559.47 1036.13,560.66"/>
    </edge>
    <edge id=":2534602381_3" function="internal">
        <lane id=":2534602381_3_0" index="0" allow="pedestrian delivery bicycle" speed="5.04" length="5.00" shape="1039.22,557.55 1037.86,557.75 1036.90,558.33 1036.32,559.31 1036.13,560.66"/>
    </edge>
    <edge id=":2534602381_4" function="internal">
        <lane id=":2534602381_4_0" index="0" allow="pedestrian delivery bicycle" speed="5.56" length="10.16" shape="1039.22,557.55 1036.46,557.17 1034.48,555.99 1033.29,554.03 1032.88,551.28"/>
    </edge>
    <edge id=":2534602381_5" function="internal">
        <lane id=":2534602381_5_0" index="0" allow="pedestrian delivery bicycle" speed="3.65" length="4.67" shape="1039.22,557.55 1038.02,556.75 1037.61,555.96 1038.01,555.15 1039.21,554.35"/>
    </edge>
    <edge id=":2534602381_6" function="internal">
        <lane id=":2534602381_6_0" index="0" allow="pedestrian delivery bicycle" speed="5.05" length="5.01" shape="1036.08,551.26 1036.28,552.62 1036.87,553.58 1037.85,554.16 1039.21,554.35"/>
    </edge>
    <edge id=":2534602381_7" function="internal">
        <lane id=":2534602381_7_0" index="0" allow="pedestrian delivery bicycle" speed="5.56" length="9.40" shape="1036.08,551.26 1036.13,560.66"/>
    </edge>
    <edge id=":2534602381_8" function="internal">
        <lane id=":2534602381_8_0" index="0" allow="pedestrian delivery bicycle" speed="3.65" length="4.67" shape="1036.08,551.26 1035.29,552.47 1034.49,552.87 1033.69,552.48 1032.88,551.28"/>
    </edge>
    <edge id=":2534602383_0" function="internal">
        <lane id=":2534602383_0_0" index="0" allow="pedestrian delivery bicycle" speed="5.05" length="5.01" shape="1080.50,560.51 1080.30,559.15 1079.71,558.19 1078.74,557.61 1077.37,557.42"/>
    </edge>
    <edge id=":2534602383_1" function="internal">
        <lane id=":2534602383_1_0" index="0" allow="pedestrian delivery bicycle" speed="5.56" length="9.40" shape="1080.50,560.51 1080.45,551.11"/>
    </edge>
    <edge id=":2534602383_2" function="internal">
        <lane id=":2534602383_2_0" index="0" allow="pedestrian delivery bicycle" speed="3.65" length="4.67" shape="1080.50,560.51 1081.29,559.30 1082.09,558.90 1082.89,559.29 1083.70,560.49"/>
    </edge>
    <edge id=":2534602383_3" function="internal">
        <lane id=":2534602383_3_0" index="0" allow="pedestrian delivery bicycle" speed="5.56" length="9.40" shape="1083.65,551.09 1083.70,560.49"/>
    </edge>
    <edge id=":2534602383_4" function="internal">
        <lane id=":2534602383_4_0" index="0" allow="pedestrian delivery bicycle" speed="5.56" length="10.17" shape="1083.65,551.09 1083.27,553.85 1082.10,555.83 1080.13,557.02 1077.37,557.42"/>
    </edge>
    <edge id=":2534602383_5" function="internal">
        <lane id=":2534602383_5_0" index="0" allow="pedestrian delivery bicycle" speed="3.65" length="4.67" shape="1083.65,551.09 1082.86,552.30 1082.06,552.70 1081.26,552.30 1080.45,551.11"/>
    </edge>
    <edge id=":2534602383_6" function="internal">
        <lane id=":2534602383_6_0" index="0" allow="pedestrian delivery bicycle" speed="5.04" length="5.00" shape="1077.36,554.22 1078.72,554.02 1079.69,553.44 1080.26,552.47 1080.45,551.11"/>
    </edge>
    <edge id=":2534602383_7" function="internal">
        <lane id=":2534602383_7_0" index="0" allow="pedestrian delivery bicycle" speed="5.56" length="10.16" shape="1077.36,554.22 1080.12,554.60 1082.10,555.78 1083.29,557.74 1083.70,560.49"/>
    </edge>
    <edge id=":2534602383_8" function="internal">
        <lane id=":2534602383_8_0" index="0" allow="pedestrian delivery bicycle" speed="3.65" length="4.67" shape="1077.36,554.22 1078.57,555.02 1078.97,555.81 1078.57,556.62 1077.37,557.42"/>
    </edge>
    <edge id=":2644228768_0" function="internal">
        <lane id=":2644228768_0_0" index="0" disallow="tram rail_urban rail rail_electric rail_fast ship container cable_car subway aircraft wheelchair scooter drone" speed="13.89" length="5.00" shape="1164.59,701.01 1164.78,706.01"/>
        <lane id=":2644228768_0_1" index="1" disallow="tram rail_urban rail rail_electric rail_fast ship container cable_car subway aircraft wheelchair scooter drone" speed="13.89" length="5.00" shape="1161.39,701.14 1161.59,706.13"/>
    </edge>
    <edge id=":286840067_0" function="internal">
        <lane id=":286840067_0_0" index="0" disallow="pedestrian tram rail_urban rail rail_electric rail_fast ship container cable_car subway aircraft wheelchair scooter drone" speed="13.89" length="16.38" shape="1142.41,618.93 1142.18,602.51"/>
        <lane id=":286840067_0_1" index="1" disallow="pedestrian tram rail_urban rail rail_electric rail_fast ship container cable_car subway aircraft wheelchair scooter drone" speed="13.89" length="16.38" shape="1145.61,618.83 1145.38,602.50"/>
    </edge>
    <edge id=":286840067_2" function="internal">
        <lane id=":286840067_2_0" index="0" disallow="tram rail_urban rail rail_electric rail_fast ship container cable_car subway aircraft wheelchair scooter drone" speed="6.48" length="9.03" shape="1136.57,608.07 1139.03,607.75 1140.78,606.71 1141.83,604.97 1142.18,602.51"/>
    </edge>
    <edge id=":286840067_3" function="internal">
        <lane id=":286840067_3_0" index="0" disallow="pedestrian tram rail_urban rail rail_electric rail_fast ship container cable_car subway aircraft wheelchair scooter drone" speed="13.89" length="12.79" shape="1136.57,608.07 1149.39,608.25"/>
        <lane id=":286840067_3_1" index="1" disallow="pedestrian tram rail_urban rail rail_electric rail_fast ship container cable_car subway aircraft wheelchair scooter drone" speed="13.89" length="12.79" shape="1136.54,611.27 1149.33,611.45"/>
        <lane id=":286840067_3_2" index="2" disallow="pedestrian tram rail_urban rail rail_electric rail_fast ship container cable_car subway aircraft wheelchair scooter drone" speed="13.89" length="12.79" shape="1136.51,614.47 1149.27,614.65"/>
    </edge>
    <edge id=":286840446_0" function="internal">
        <lane id=":286840446_0_0" index="0" disallow="tram rail_urban rail rail_electric rail_fast ship container cable_car subway aircraft wheelchair scooter drone" speed="13.89" length="0.30" shape="1141.64,647.71 1141.63,647.42"/>
        <lane id=":286840446_0_1" index="1" disallow="tram rail_urban rail rail_electric rail_fast ship container cable_car subway aircraft wheelchair scooter drone" speed="13.89" length="0.30" shape="1144.83,647.62 1144.83,647.32"/>
        <lane id=":286840446_0_2" index="2" disallow="tram rail_urban rail rail_electric rail_fast ship container cable_car subway aircraft wheelchair scooter drone" speed="13.89" length="0.30" shape="1148.03,647.53 1148.02,647.23"/>
    </edge>
    <edge id=":286840531_0" function="internal">
        <lane id=":286840531_0_0" index="0" disallow="tram rail_urban rail rail_electric rail_fast ship container cable_car subway aircraft wheelchair scooter drone" speed="13.89" length="5.04" shape="1122.46,607.93 1127.50,607.98"/>
        <lane id=":286840531_0_1" index="1" disallow="tram rail_urban rail rail_electric rail_fast ship container cable_car subway aircraft wheelchair scooter drone" speed="13.89" length="5.04" shape="1122.42,611.13 1127.47,611.18"/>
        <lane id=":286840531_0_2" index="2" disallow="tram rail_urban rail rail_electric rail_fast ship container cable_car subway aircraft wheelchair scooter drone" speed="13.89" length="5.04" shape="1122.39,614.33 1127.43,614.38"/>
    </edge>
    <edge id=":286840532_0" function="internal">
        <lane id=":286840532_0_0" index="0" disallow="tram rail_urban rail rail_electric rail_fast ship container cable_car subway aircraft wheelchair scooter drone" speed="13.89" length="5.09" shape="1173.89,629.88 1168.82,629.86"/>
        <lane id=":286840532_0_1" index="1" disallow="tram rail_urban rail rail_electric rail_fast ship container cable_car subway aircraft wheelchair scooter drone" speed="13.89" length="5.09" shape="1173.92,626.68 1168.83,626.66"/>
        <lane id=":286840532_0_2" index="2" disallow="tram rail_urban rail rail_electric rail_fast ship container cable_car subway aircraft wheelchair scooter drone" speed="13.89" length="5.09" shape="1173.94,623.48 1168.83,623.46"/>
    </edge>
    <edge id=":2963307408_0" function="internal">
        <lane id=":2963307408_0_0" index="0" disallow="tram rail_urban rail rail_electric rail_fast ship container cable_car subway aircraft wheelchair scooter drone" speed="2.78" length="4.67" shape="1295.90,582.07 1297.09,582.89 1297.49,583.69 1297.08,584.49 1295.87,585.27"/>
    </edge>
    <edge id=":305921408_0" function="internal">
        <lane id=":305921408_0_0" index="0" disallow="tram rail_urban rail rail_electric rail_fast ship container cable_car subway aircraft wheelchair scooter drone" speed="6.62" length="9.10" shape="1141.28,635.37 1140.88,632.84 1139.81,631.03 1138.10,629.93 1135.73,629.55"/>
        <lane id=":305921408_0_1" index="1" disallow="tram rail_urban rail rail_electric rail_fast ship container cable_car subway aircraft wheelchair scooter drone" speed="8.09" length="14.12" shape="1144.48,635.28 1143.84,631.40 1142.18,628.62 1139.48,626.94 1135.76,626.35"/>
    </edge>
    <edge id=":305921408_2" function="internal">
        <lane id=":305921408_2_0" index="0" disallow="pedestrian tram rail_urban rail rail_electric rail_fast ship container cable_car subway aircraft wheelchair scooter drone" speed="13.89" length="16.72" shape="1147.68,635.19 1146.79,630.30 1145.05,627.16 1143.31,624.01 1142.42,619.13"/>
        <lane id=":305921408_2_1" index="1" disallow="pedestrian tram rail_urban rail rail_electric rail_fast ship container cable_car subway aircraft wheelchair scooter drone" speed="13.89" length="16.72" shape="1147.68,635.19 1147.30,630.37 1146.65,627.11 1146.01,623.85 1145.62,619.03"/>
    </edge>
    <edge id=":305921408_4" function="internal">
        <lane id=":305921408_4_0" index="0" disallow="pedestrian tram rail_urban rail rail_electric rail_fast ship container cable_car subway aircraft wheelchair scooter drone" speed="13.89" length="14.73" shape="1150.45,629.71 1135.73,629.55"/>
        <lane id=":305921408_4_1" index="1" disallow="pedestrian tram rail_urban rail rail_electric rail_fast ship container cable_car subway aircraft wheelchair scooter drone" speed="13.89" length="14.73" shape="1150.49,626.51 1135.76,626.35"/>
        <lane id=":305921408_4_2" index="2" disallow="pedestrian tram rail_urban rail rail_electric rail_fast ship container cable_car subway aircraft wheelchair scooter drone" speed="13.89" length="14.73" shape="1150.53,623.31 1135.79,623.15"/>
    </edge>
    <edge id=":305921408_7" function="internal">
        <lane id=":305921408_7_0" index="0" disallow="pedestrian tram rail_urban rail rail_electric rail_fast ship container cable_car subway aircraft wheelchair scooter drone" speed="6.03" length="7.35" shape="1150.53,623.31 1148.43,623.02 1146.91,622.21 1145.97,620.88 1145.62,619.03"/>
    </edge>
    <edge id=":3719807257_0" function="internal">
        <lane id=":3719807257_0_0" index="0" disallow="tram rail_urban rail rail_electric rail_fast ship container cable_car subway aircraft wheelchair scooter drone" speed="13.89" length="0.30" shape="1163.82,681.66 1163.83,681.95"/>
        <lane id=":3719807257_0_1" index="1" disallow="tram rail_urban rail rail_electric rail_fast ship container cable_car subway aircraft wheelchair scooter drone" speed="13.89" length="0.30" shape="1160.63,681.77 1160.64,682.08"/>
    </edge>
    <edge id=":4518589186_0" function="internal">
        <lane id=":4518589186_0_0" index="0" allow="pedestrian delivery bicycle" speed="3.65" length="4.67" shape="1089.71,501.31 1090.52,500.11 1091.32,499.72 1092.12,500.12 1092.91,501.33"/>
    </edge>
    <edge id=":4518589187_0" function="internal">
        <lane id=":4518589187_0_0" index="0" allow="pedestrian delivery bicycle" speed="5.56" length="0.10" shape="1092.76,529.58 1092.76,529.58"/>
    </edge>
    <edge id=":4518589187_1" function="internal">
        <lane id=":4518589187_1_0" index="0" allow="pedestrian delivery bicycle" speed="5.56" length="0.10" shape="1089.56,529.56 1089.56,529.56"/>
    </edge>
    <edge id=":6234008736_0" function="internal">
        <lane id=":6234008736_0_0" index="0" allow="tram" speed="13.89" length="0.30" shape="1601.56,1371.74 1601.35,1371.53"/>
    </edge>
    <edge id=":6242754209_0" function="internal">
        <lane id=":6242754209_0_0" index="0" disallow="tram rail_urban rail rail_electric rail_fast ship container cable_car subway aircraft wheelchair scooter drone" speed="13.89" length="5.04" shape="1127.36,629.47 1122.32,629.41"/>
        <lane id=":6242754209_0_1" index="1" disallow="tram rail_urban rail rail_electric rail_fast ship container cable_car subway aircraft wheelchair scooter drone" speed="13.89" length="5.04" shape="1127.39,626.27 1122.35,626.21"/>
        <lane id=":6242754209_0_2" index="2" disallow="tram rail_urban rail rail_electric rail_fast ship container cable_car subway aircraft wheelchair scooter drone" speed="13.89" length="5.04" shape="1127.43,623.07 1122.38,623.02"/>
    </edge>
    <edge id=":6909034247_0" function="internal">
        <lane id=":6909034247_0_0" index="0" disallow="tram rail_urban rail rail_electric rail_fast ship container cable_car subway aircraft wheelchair scooter drone" speed="16.67" length="5.08" shape="1168.75,608.49 1173.82,608.51"/>
        <lane id=":6909034247_0_1" index="1" disallow="tram rail_urban rail rail_electric rail_fast ship container cable_car subway aircraft wheelchair scooter drone" speed="16.67" length="5.08" shape="1168.73,611.69 1173.82,611.71"/>
        <lane id=":6909034247_0_2" index="2" disallow="tram rail_urban rail rail_electric rail_fast ship container cable_car subway aircraft wheelchair scooter drone" speed="16.67" length="5.08" shape="1168.72,614.89 1173.81,614.91"/>
    </edge>
    <edge id=":6909034253_0" function="internal">
        <lane id=":6909034253_0_0" index="0" disallow="tram rail_urban rail rail_electric rail_fast ship container cable_car subway aircraft wheelchair scooter drone" speed="13.89" length="5.21" shape="1141.62,647.00 1141.47,641.78"/>
        <lane id=":6909034253_0_1" index="1" disallow="tram rail_urban rail rail_electric rail_fast ship container cable_car subway aircraft wheelchair scooter drone" speed="13.89" length="5.21" shape="1144.81,646.90 1144.66,641.69"/>
        <lane id=":6909034253_0_2" index="2" disallow="tram rail_urban rail rail_electric rail_fast ship container cable_car subway aircraft wheelchair scooter drone" speed="13.89" length="5.21" shape="1148.01,646.81 1147.86,641.60"/>
    </edge>
    <edge id=":6909034254_0" function="internal">
        <lane id=":6909034254_0_0" index="0" disallow="tram rail_urban rail rail_electric rail_fast ship container cable_car subway aircraft wheelchair scooter drone" speed="13.89" length="5.17" shape="1162.45,641.54 1162.62,646.71"/>
        <lane id=":6909034254_0_1" index="1" disallow="tram rail_urban rail rail_electric rail_fast ship container cable_car subway aircraft wheelchair scooter drone" speed="13.89" length="5.17" shape="1159.25,641.65 1159.42,646.82"/>
    </edge>
    <edge id=":6909034273_0" function="internal">
        <lane id=":6909034273_0_0" index="0" allow="pedestrian delivery bicycle" speed="5.56" length="4.30" shape="1134.49,542.81 1138.79,542.80"/>
    </edge>
    <edge id=":6937009013_0" function="internal">
        <lane id=":6937009013_0_0" index="0" allow="tram" speed="13.89" length="12.70" shape="1151.43,632.85 1151.22,620.16"/>
    </edge>
    <edge id=":6937009013_1" function="internal">
        <lane id=":6937009013_1_0" index="0" disallow="pedestrian tram rail_urban rail rail_electric rail_fast ship container cable_car subway aircraft wheelchair scooter drone" speed="13.89" length="2.29" shape="1152.95,629.74 1150.65,629.71"/>
        <lane id=":6937009013_1_1" index="1" disallow="pedestrian tram rail_urban rail rail_electric rail_fast ship container cable_car subway aircraft wheelchair scooter drone" speed="13.89" length="2.29" shape="1152.99,626.54 1150.69,626.51"/>
        <lane id=":6937009013_1_2" index="2" disallow="pedestrian tram rail_urban rail rail_electric rail_fast ship container cable_car subway aircraft wheelchair scooter drone" speed="13.89" length="2.29" shape="1153.03,623.34 1150.73,623.31"/>
    </edge>
    <edge id=":6937009014_0" function="internal">
        <lane id=":6937009014_0_0" index="0" allow="tram" speed="13.89" length="12.77" shape="1151.16,617.86 1150.77,605.10"/>
    </edge>
    <edge id=":6937009014_1" function="internal">
        <lane id=":6937009014_1_0" index="0" disallow="pedestrian tram rail_urban rail rail_electric rail_fast ship container cable_car subway aircraft wheelchair scooter drone" speed="13.89" length="3.01" shape="1149.59,608.26 1152.60,608.32"/>
        <lane id=":6937009014_1_1" index="1" disallow="pedestrian tram rail_urban rail rail_electric rail_fast ship container cable_car subway aircraft wheelchair scooter drone" speed="13.89" length="3.01" shape="1149.53,611.46 1152.54,611.51"/>
        <lane id=":6937009014_1_2" index="2" disallow="pedestrian tram rail_urban rail rail_electric rail_fast ship container cable_car subway aircraft wheelchair scooter drone" speed="13.89" length="3.01" shape="1149.47,614.66 1152.48,614.71"/>
    </edge>
    <edge id=":7070697815_0" function="internal">
        <lane id=":7070697815_0_0" index="0" allow="tram" speed="13.89" length="5.06" shape="1151.60,646.81 1151.47,641.75"/>
    </edge>
    <edge id=":7070697816_0" function="internal">
        <lane id=":7070697816_0_0" index="0" allow="tram" speed="13.89" length="5.12" shape="1150.51,597.19 1150.35,592.08"/>
    </edge>
    <edge id=":7281243772_0" function="internal">
        <lane id=":7281243772_0_0" index="0" allow="pedestrian delivery bicycle" speed="5.56" length="0.30" shape="1104.89,542.87 1105.19,542.87"/>
    </edge>
    <edge id=":7281243773_0" function="internal">
        <lane id=":7281243773_0_0" index="0" allow="pedestrian delivery bicycle" speed="5.56" length="0.30" shape="1101.47,542.89 1101.77,542.89"/>
    </edge>
    <edge id=":7733839278_0" function="internal">