<?xml version="1.0" encoding="UTF-8"?>

<!-- generated on 2025-06-20 21:29:13 by Eclipse SUMO netconvert Version 1.20.0
<configuration xmlns:xsi="http://www.w3.org/2001/XMLSchema-instance" xsi:noNamespaceSchemaLocation="http://sumo.dlr.de/xsd/netconvertConfiguration.xsd">

    <input>
        <osm-files value="intrare-automatica.osm"/>
    </input>

    <output>
        <output-file value="intrare-automatica.net.xml"/>
    </output>

    <projection>
        <proj.utm value="true"/>
    </projection>

</configuration>
-->

<net version="1.20" junctionCornerDetail="5" limitTurnSpeed="5.50" xmlns:xsi="http://www.w3.org/2001/XMLSchema-instance" xsi:noNamespaceSchemaLocation="http://sumo.dlr.de/xsd/net_file.xsd">

    <location netOffset="-423974.97,-4920570.63" convBoundary="0.00,0.00,300.02,336.77" origBoundary="26.044707,44.434443,26.048509,44.437471" projParameter="+proj=utm +zone=35 +ellps=WGS84 +datum=WGS84 +units=m +no_defs"/>

    <type id="highway.footway" priority="1" numLanes="1" speed="2.78" allow="pedestrian" oneway="1" width="2.00"/>
    <type id="highway.service" priority="1" numLanes="1" speed="5.56" allow="pedestrian delivery bicycle" oneway="0"/>

    <edge id=":1341209731_0" function="internal">
        <lane id=":1341209731_0_0" index="0" allow="pedestrian delivery bicycle" speed="4.96" length="5.10" shape="32.83,29.47 31.70,28.63 30.59,28.38 29.50,28.72 28.45,29.65"/>
    </edge>
    <edge id=":1341209731_1" function="internal">
        <lane id=":1341209731_1_0" index="0" allow="pedestrian delivery bicycle" speed="5.56" length="8.77" shape="32.83,29.47 31.08,27.49 29.86,25.57 29.16,23.69 28.98,21.85"/>
    </edge>
    <edge id=":1341209731_2" function="internal">
        <lane id=":1341209731_2_0" index="0" allow="pedestrian delivery bicycle" speed="3.65" length="4.67" shape="32.83,29.47 32.54,28.06 32.82,27.21 33.67,26.92 35.09,27.20"/>
    </edge>
    <edge id=":1341209731_3" function="internal">
        <lane id=":1341209731_3_0" index="0" allow="pedestrian delivery bicycle" speed="5.56" length="6.12" shape="32.17,22.00 32.32,23.15 32.85,24.40 33.78,25.75 35.09,27.20"/>
    </edge>
    <edge id=":1341209731_4" function="internal">
        <lane id=":1341209731_4_0" index="0" allow="pedestrian delivery bicycle" speed="5.56" length="8.80" shape="32.17,22.00 31.90,24.53 31.27,26.20 30.17,27.68 28.45,29.65"/>
    </edge>
    <edge id=":1341209731_5" function="internal">
        <lane id=":1341209731_5_0" index="0" allow="pedestrian delivery bicycle" speed="3.65" length="4.67" shape="32.17,22.00 31.32,23.16 30.50,23.52 29.72,23.09 28.98,21.85"/>
    </edge>
    <edge id=":1341209731_6" function="internal">
        <lane id=":1341209731_6_0" index="0" allow="pedestrian delivery bicycle" speed="5.56" length="6.66" shape="26.01,27.57 27.33,26.10 28.22,25.00 28.75,23.76 28.98,21.85"/>
    </edge>
    <edge id=":1341209731_7" function="internal">
        <lane id=":1341209731_7_0" index="0" allow="pedestrian delivery bicycle" speed="5.56" length="10.55" shape="26.01,27.57 28.20,25.64 30.45,24.94 32.74,25.46 35.09,27.20"/>
    </edge>
    <edge id=":1341209731_8" function="internal">
        <lane id=":1341209731_8_0" index="0" allow="pedestrian delivery bicycle" speed="3.65" length="4.67" shape="26.01,27.57 27.40,27.18 28.27,27.39 28.61,28.22 28.45,29.65"/>
    </edge>
    <edge id=":255689150_0" function="internal">
        <lane id=":255689150_0_0" index="0" allow="pedestrian delivery bicycle" speed="3.65" length="4.67" shape="1.77,336.75 0.98,337.96 0.19,338.37 -0.62,337.98 -1.43,336.79"/>
    </edge>
    <edge id=":255689154_0" function="internal">
        <lane id=":255689154_0_0" index="0" allow="pedestrian delivery bicycle" speed="3.65" length="4.67" shape="29.43,0.01 30.22,-1.19 31.02,-1.60 31.82,-1.21 32.63,-0.01"/>
    </edge>
    <edge id=":255689174_0" function="internal">
        <lane id=":255689174_0_0" index="0" allow="pedestrian delivery bicycle" speed="5.56" length="16.63" shape="31.28,150.13 29.29,153.67 27.11,157.47 25.34,161.37 24.59,165.20"/>
    </edge>
    <edge id=":255689174_1" function="internal">
        <lane id=":255689174_1_0" index="0" allow="pedestrian delivery bicycle" speed="5.56" length="13.72" shape="31.28,150.13 28.69,152.65 25.45,152.91 22.68,151.19 21.53,147.77"/>
    </edge>
    <edge id=":255689174_2" function="internal">
        <lane id=":255689174_2_0" index="0" allow="pedestrian delivery bicycle" speed="3.65" length="4.67" shape="31.28,150.13 30.02,150.84 29.13,150.84 28.59,150.12 28.42,148.69"/>
    </edge>
    <edge id=":255689174_3" function="internal">
        <lane id=":255689174_3_0" index="0" allow="pedestrian delivery bicycle" speed="5.02" length="9.15" shape="24.73,147.80 24.94,150.98 25.62,152.18 26.78,151.42 28.42,148.69"/>
    </edge>
    <edge id=":255689174_4" function="internal">
        <lane id=":255689174_4_0" index="0" allow="pedestrian delivery bicycle" speed="5.56" length="17.41" shape="24.73,147.80 24.59,165.20"/>
    </edge>
    <edge id=":255689174_5" function="internal">
        <lane id=":255689174_5_0" index="0" allow="pedestrian delivery bicycle" speed="3.65" length="4.67" shape="24.73,147.80 23.92,148.99 23.12,149.38 22.32,148.98 21.53,147.77"/>
    </edge>
    <edge id=":255689174_6" function="internal">
        <lane id=":255689174_6_0" index="0" allow="pedestrian delivery bicycle" speed="5.56" length="17.39" shape="21.39,165.17 21.53,147.77"/>
    </edge>
    <edge id=":255689174_7" function="internal">
        <lane id=":255689174_7_0" index="0" allow="pedestrian delivery bicycle" speed="5.56" length="18.04" shape="21.39,165.17 22.19,161.11 24.08,156.73 26.38,152.44 28.42,148.69"/>
    </edge>
    <edge id=":255689174_8" function="internal">
        <lane id=":255689174_8_0" index="0" allow="pedestrian delivery bicycle" speed="3.65" length="4.67" shape="21.39,165.17 22.20,163.98 23.01,163.58 23.80,163.99 24.59,165.20"/>
    </edge>
    <edge id=":255689209_0" function="internal">
        <lane id=":255689209_0_0" index="0" allow="pedestrian delivery bicycle" speed="4.85" length="6.36" shape="36.55,149.36 35.22,147.77 33.99,147.18 32.87,147.58 31.86,148.98"/>
    </edge>
    <edge id=":255689209_1" function="internal">
        <lane id=":255689209_1_0" index="0" allow="pedestrian delivery bicycle" speed="5.56" length="13.78" shape="36.55,149.36 34.97,146.23 34.17,143.03 33.88,139.67 33.82,136.07"/>
    </edge>
    <edge id=":255689209_2" function="internal">
        <lane id=":255689209_2_0" index="0" allow="pedestrian delivery bicycle" speed="3.78" length="5.18" shape="36.55,149.36 37.25,147.92 38.07,147.36 39.01,147.68 40.07,148.87"/>
    </edge>
    <edge id=":255689209_3" function="internal">
        <lane id=":255689209_3_0" index="0" allow="pedestrian delivery bicycle" speed="5.56" length="13.40" shape="37.02,136.04 37.13,139.57 37.53,142.77 38.44,145.81 40.07,148.87"/>
    </edge>
    <edge id=":255689209_4" function="internal">
        <lane id=":255689209_4_0" index="0" allow="pedestrian delivery bicycle" speed="5.56" length="14.09" shape="37.02,136.04 36.55,139.54 35.31,142.71 33.63,145.78 31.86,148.98"/>
    </edge>
    <edge id=":255689209_5" function="internal">
        <lane id=":255689209_5_0" index="0" allow="pedestrian delivery bicycle" speed="3.65" length="4.67" shape="37.02,136.04 36.24,137.25 35.44,137.66 34.64,137.26 33.82,136.07"/>
    </edge>
    <edge id=":255689209_6" function="internal">
        <lane id=":255689209_6_0" index="0" allow="pedestrian delivery bicycle" speed="5.56" length="12.61" shape="29.01,147.53 30.72,144.56 32.28,142.00 33.41,139.34 33.82,136.07"/>
    </edge>
    <edge id=":255689209_7" function="internal">
        <lane id=":255689209_7_0" index="0" allow="pedestrian delivery bicycle" speed="5.56" length="14.98" shape="29.01,147.53 31.35,144.35 33.97,143.52 36.88,145.02 40.07,148.87"/>
    </edge>
    <edge id=":255689209_8" function="internal">
        <lane id=":255689209_8_0" index="0" allow="pedestrian delivery bicycle" speed="3.65" length="4.67" shape="29.01,147.53 30.26,146.82 31.16,146.83 31.69,147.54 31.86,148.98"/>
    </edge>
    <edge id=":255689212_0" function="internal">
        <lane id=":255689212_0_0" index="0" allow="pedestrian delivery bicycle" speed="5.56" length="7.54" shape="29.01,224.02 26.75,225.30 25.13,226.57 24.15,227.83 23.81,229.08"/>
    </edge>
    <edge id=":255689212_1" function="internal">
        <lane id=":255689212_1_0" index="0" allow="pedestrian delivery bicycle" speed="5.56" length="13.01" shape="29.01,224.02 25.35,225.27 22.75,224.82 21.21,222.68 20.74,218.84"/>
    </edge>
    <edge id=":255689212_2" function="internal">
        <lane id=":255689212_2_0" index="0" allow="pedestrian delivery bicycle" speed="3.65" length="4.67" shape="29.01,224.02 27.58,223.84 26.86,223.30 26.86,222.41 27.58,221.15"/>
    </edge>
    <edge id=":255689212_3" function="internal">
        <lane id=":255689212_3_0" index="0" allow="pedestrian delivery bicycle" speed="4.69" length="5.72" shape="23.94,218.88 24.15,220.57 24.82,221.51 25.97,221.70 27.58,221.15"/>
    </edge>
    <edge id=":255689212_4" function="internal">
        <lane id=":255689212_4_0" index="0" allow="pedestrian delivery bicycle" speed="5.56" length="10.20" shape="23.94,218.88 23.81,229.08"/>
    </edge>
    <edge id=":255689212_5" function="internal">
        <lane id=":255689212_5_0" index="0" allow="pedestrian delivery bicycle" speed="3.65" length="4.67" shape="23.94,218.88 23.12,220.07 22.32,220.46 21.52,220.05 20.74,218.84"/>
    </edge>
    <edge id=":255689212_6" function="internal">
        <lane id=":255689212_6_0" index="0" allow="pedestrian delivery bicycle" speed="5.56" length="10.20" shape="20.61,229.03 20.74,218.84"/>
    </edge>
    <edge id=":255689212_7" function="internal">
        <lane id=":255689212_7_0" index="0" allow="pedestrian delivery bicycle" speed="5.56" length="11.02" shape="20.61,229.03 21.07,226.88 22.38,224.85 24.55,222.94 27.58,221.15"/>
    </edge>
    <edge id=":255689212_8" function="internal">
        <lane id=":255689212_8_0" index="0" allow="pedestrian delivery bicycle" speed="3.65" length="4.67" shape="20.61,229.03 21.43,227.84 22.23,227.46 23.03,227.87 23.81,229.08"/>
    </edge>
    <edge id=":288300355_0" function="internal">
        <lane id=":288300355_0_0" index="0" allow="pedestrian delivery bicycle" speed="3.65" length="4.67" shape="299.51,95.84 300.90,96.22 301.53,96.85 301.41,97.74 300.53,98.88"/>
    </edge>
    <edge id=":288300358_0" function="internal">
        <lane id=":288300358_0_0" index="0" allow="pedestrian delivery bicycle" speed="5.04" length="5.01" shape="28.20,100.11 26.84,100.29 25.86,100.86 25.27,101.83 25.07,103.18"/>
    </edge>
    <edge id=":288300358_1" function="internal">
        <lane id=":288300358_1_0" index="0" allow="pedestrian delivery bicycle" speed="5.56" length="10.19" shape="28.20,100.11 25.44,99.69 23.48,98.48 22.33,96.49 21.98,93.71"/>
    </edge>
    <edge id=":288300358_2" function="internal">
        <lane id=":288300358_2_0" index="0" allow="pedestrian delivery bicycle" speed="3.65" length="4.67" shape="28.20,100.11 27.01,99.30 26.62,98.50 27.03,97.70 28.24,96.91"/>
    </edge>
    <edge id=":288300358_3" function="internal">
        <lane id=":288300358_3_0" index="0" allow="pedestrian delivery bicycle" speed="5.03" length="5.01" shape="25.18,93.77 25.35,95.13 25.92,96.11 26.88,96.70 28.24,96.91"/>
    </edge>
    <edge id=":288300358_4" function="internal">
        <lane id=":288300358_4_0" index="0" allow="pedestrian delivery bicycle" speed="5.56" length="9.42" shape="25.18,93.77 25.07,103.18"/>
    </edge>
    <edge id=":288300358_5" function="internal">
        <lane id=":288300358_5_0" index="0" allow="pedestrian delivery bicycle" speed="3.65" length="4.67" shape="25.18,93.77 24.36,94.96 23.56,95.34 22.76,94.93 21.98,93.71"/>
    </edge>
    <edge id=":288300358_6" function="internal">
        <lane id=":288300358_6_0" index="0" allow="pedestrian delivery bicycle" speed="5.56" length="9.45" shape="21.87,103.16 21.98,93.71"/>
    </edge>
    <edge id=":288300358_7" function="internal">
        <lane id=":288300358_7_0" index="0" allow="pedestrian delivery bicycle" speed="5.56" length="10.18" shape="21.87,103.16 22.28,100.40 23.48,98.44 25.47,97.28 28.24,96.91"/>
    </edge>
    <edge id=":288300358_8" function="internal">
        <lane id=":288300358_8_0" index="0" allow="pedestrian delivery bicycle" speed="3.65" length="4.67" shape="21.87,103.16 22.68,101.97 23.48,101.57 24.28,101.98 25.07,103.18"/>
    </edge>
    <edge id=":288300445_0" function="internal">
        <lane id=":288300445_0_0" index="0" allow="pedestrian delivery bicycle" speed="5.13" length="5.13" shape="33.51,103.36 33.30,101.96 32.70,100.96 31.71,100.35 30.34,100.14"/>
    </edge>
    <edge id=":288300445_1" function="internal">
        <lane id=":288300445_1_0" index="0" allow="pedestrian delivery bicycle" speed="5.56" length="9.49" shape="33.51,103.36 33.51,93.87"/>
    </edge>
    <edge id=":288300445_2" function="internal">
        <lane id=":288300445_2_0" index="0" allow="pedestrian delivery bicycle" speed="5.56" length="10.24" shape="33.51,103.36 33.88,100.57 35.06,98.59 37.04,97.40 39.83,97.03"/>
    </edge>
    <edge id=":288300445_3" function="internal">
        <lane id=":288300445_3_0" index="0" allow="pedestrian delivery bicycle" speed="3.65" length="4.67" shape="33.51,103.36 34.30,102.15 35.09,101.75 35.90,102.14 36.71,103.33"/>
    </edge>
    <edge id=":288300445_4" function="internal">
        <lane id=":288300445_4_0" index="0" allow="pedestrian delivery bicycle" speed="5.02" length="5.02" shape="39.80,100.23 38.44,100.41 37.47,100.99 36.89,101.96 36.71,103.33"/>
    </edge>
    <edge id=":288300445_5" function="internal">
        <lane id=":288300445_5_0" index="0" allow="pedestrian delivery bicycle" speed="5.56" length="9.47" shape="39.80,100.23 30.34,100.14"/>
    </edge>
    <edge id=":288300445_6" function="internal">
        <lane id=":288300445_6_0" index="0" allow="pedestrian delivery bicycle" speed="5.56" length="10.21" shape="39.80,100.23 37.03,99.81 35.05,98.61 33.88,96.63 33.51,93.87"/>
    </edge>
    <edge id=":288300445_7" function="internal">
        <lane id=":288300445_7_0" index="0" allow="pedestrian delivery bicycle" speed="3.65" length="4.67" shape="39.80,100.23 38.61,99.42 38.22,98.61 38.62,97.82 39.83,97.03"/>
    </edge>
    <edge id=":288300445_8" function="internal">
        <lane id=":288300445_8_0" index="0" allow="pedestrian delivery bicycle" speed="5.05" length="5.04" shape="36.71,93.90 36.89,95.26 37.47,96.23 38.45,96.82 39.83,97.03"/>
    </edge>
    <edge id=":288300445_9" function="internal">
        <lane id=":288300445_9_0" index="0" allow="pedestrian delivery bicycle" speed="5.56" length="9.43" shape="36.71,93.90 36.71,103.33"/>
    </edge>
    <edge id=":288300445_10" function="internal">
        <lane id=":288300445_10_0" index="0" allow="pedestrian delivery bicycle" speed="5.56" length="10.17" shape="36.71,93.90 36.29,96.66 35.08,98.61 33.10,99.77 30.34,100.14"/>
    </edge>
    <edge id=":288300445_11" function="internal">
        <lane id=":288300445_11_0" index="0" allow="pedestrian delivery bicycle" speed="3.65" length="4.67" shape="36.71,93.90 35.90,95.09 35.09,95.48 34.30,95.07 33.51,93.87"/>
    </edge>
    <edge id=":288300445_12" function="internal">
        <lane id=":288300445_12_0" index="0" allow="pedestrian delivery bicycle" speed="5.04" length="5.00" shape="30.38,96.94 31.73,96.76 32.71,96.19 33.30,95.22 33.51,93.87"/>
    </edge>
    <edge id=":288300445_13" function="internal">
        <lane id=":288300445_13_0" index="0" allow="pedestrian delivery bicycle" speed="5.56" length="9.45" shape="30.38,96.94 39.83,97.03"/>
    </edge>
    <edge id=":288300445_14" function="internal">
        <lane id=":288300445_14_0" index="0" allow="pedestrian delivery bicycle" speed="5.56" length="10.21" shape="30.38,96.94 33.12,97.36 35.09,98.57 36.29,100.56 36.71,103.33"/>
    </edge>
    <edge id=":288300445_15" function="internal">
        <lane id=":288300445_15_0" index="0" allow="pedestrian delivery bicycle" speed="3.65" length="4.67" shape="30.38,96.94 31.57,97.75 31.96,98.56 31.55,99.35 30.34,100.14"/>
    </edge>
    <edge id=":9787404395_0" function="internal">
        <lane id=":9787404395_0_0" index="0" allow="pedestrian delivery bicycle" speed="5.56" length="5.27" shape="46.14,156.90 44.73,156.23 43.76,155.76 42.84,155.22 41.56,154.32"/>
    </edge>
    <edge id=":9787404395_1" function="internal">
        <lane id=":9787404395_1_0" index="0" allow="pedestrian delivery bicycle" speed="3.65" length="1.44" shape="46.14,156.90 45.42,155.65"/>
    </edge>
    <edge id=":9787404395_4" function="internal">
        <lane id=":9787404395_4_0" index="0" allow="pedestrian delivery bicycle" speed="3.65" length="3.23" shape="45.42,155.65 45.41,154.76 46.12,154.21 47.55,154.02"/>
    </edge>
    <edge id=":9787404395_2" function="internal">
        <lane id=":9787404395_2_0" index="0" allow="pedestrian delivery bicycle" speed="5.56" length="5.28" shape="42.99,151.39 44.26,152.30 45.18,152.86 46.14,153.34 47.55,154.02"/>
    </edge>
    <edge id=":9787404395_3" function="internal">
        <lane id=":9787404395_3_0" index="0" allow="pedestrian delivery bicycle" speed="3.67" length="1.47" shape="42.99,151.39 43.73,152.66"/>
    </edge>
    <edge id=":9787404395_5" function="internal">
        <lane id=":9787404395_5_0" index="0" allow="pedestrian delivery bicycle" speed="3.67" length="3.29" shape="43.73,152.66 43.74,153.57 43.02,154.12 41.56,154.32"/>
    </edge>
    <edge id=":9787404396_0" function="internal">
        <lane id=":9787404396_0_0" index="0" allow="pedestrian delivery bicycle" speed="5.56" length="5.01" shape="48.72,100.30 43.71,100.25"/>
    </edge>
    <edge id=":9787404396_1" function="internal">
        <lane id=":9787404396_1_0" index="0" allow="pedestrian delivery bicycle" speed="3.65" length="1.44" shape="48.72,100.30 47.53,99.48"/>
    </edge>
    <edge id=":9787404396_4" function="internal">
        <lane id=":9787404396_4_0" index="0" allow="pedestrian delivery bicycle" speed="3.65" length="3.23" shape="47.53,99.48 47.13,98.68 47.54,97.88 48.75,97.10"/>
    </edge>
    <edge id=":9787404396_2" function="internal">
        <lane id=":9787404396_2_0" index="0" allow="pedestrian delivery bicycle" speed="5.56" length="5.02" shape="43.73,97.05 48.75,97.10"/>
    </edge>
    <edge id=":9787404396_3" function="internal">
        <lane id=":9787404396_3_0" index="0" allow="pedestrian delivery bicycle" speed="3.65" length="1.44" shape="43.73,97.05 44.92,97.86"/>
    </edge>
    <edge id=":9787404396_5" function="internal">
        <lane id=":9787404396_5_0" index="0" allow="pedestrian delivery bicycle" speed="3.65" length="3.23" shape="44.92,97.86 45.32,98.67 44.91,99.46 43.71,100.25"/>
    </edge>

    <edge id="-23608372#0" from="255689212" to="255689150" priority="1" type="highway.service" shape="22.26,225.61 21.59,276.71 18.13,290.51 15.41,294.84 0.99,317.81 0.00,323.64 0.17,336.77">
        <lane id="-23608372#0_0" index="0" allow="pedestrian delivery bicycle" speed="5.56" length="113.12" shape="23.81,229.08 23.18,276.91 19.62,291.15 16.76,295.69 2.51,318.39 1.60,323.76 1.77,336.75"/>
    </edge>
    <edge id="-23608372#1" from="255689174" to="255689212" priority="1" type="highway.service">
        <lane id="-23608372#1_0" index="0" allow="pedestrian delivery bicycle" speed="5.56" length="53.68" shape="24.59,165.20 23.94,218.88"/>
    </edge>
    <edge id="-23608372#2" from="288300358" to="255689174" priority="1" type="highway.service">
        <lane id="-23608372#2_0" index="0" allow="pedestrian delivery bicycle" speed="5.56" length="44.61" shape="25.07,103.18 24.73,147.80"/>
    </edge>
    <edge id="-23608372#3" from="1341209731" to="288300358" priority="1" type="highway.service" shape="30.44,24.84 24.64,31.65 23.50,98.46">
        <lane id="-23608372#3_0" index="0" allow="pedestrian delivery bicycle" speed="5.56" length="64.94" shape="28.45,29.65 26.23,32.25 25.18,93.77"/>
    </edge>
    <edge id="-23608372#4" from="255689154" to="1341209731" priority="1" type="highway.service" shape="31.03,0.00 31.09,9.24 31.03,11.92 30.44,24.84">
        <lane id="-23608372#4_0" index="0" allow="pedestrian delivery bicycle" speed="5.56" length="22.02" shape="32.63,-0.01 32.69,9.24 32.62,11.98 32.17,22.00"/>
    </edge>
    <edge id="-23608374#0" from="288300445" to="1341209731" priority="1" type="highway.service" shape="35.06,98.59 35.74,30.12 30.44,24.84">
        <lane id="-23608374#0_0" index="0" allow="pedestrian delivery bicycle" speed="5.56" length="64.94" shape="33.51,93.87 34.14,30.78 32.83,29.47"/>
    </edge>
    <edge id="-23608374#1" from="255689209" to="288300445" priority="1" type="highway.service">
        <lane id="-23608374#1_0" index="0" allow="pedestrian delivery bicycle" speed="5.56" length="32.71" shape="33.82,136.07 33.51,103.36"/>
    </edge>
    <edge id="-23608374#2" from="255689174" to="255689209" priority="1" type="highway.service">
        <lane id="-23608374#2_0" index="0" allow="pedestrian delivery bicycle" speed="5.56" length="1.30" shape="28.42,148.69 29.01,147.53"/>
    </edge>
    <edge id="-23608381#0" from="9787404395" to="255689209" priority="1" type="highway.service" shape="45.88,154.99 43.76,153.96 39.34,150.67 36.25,146.01 35.45,138.34">
        <lane id="-23608381#0_0" index="0" allow="pedestrian delivery bicycle" speed="5.56" length="7.15" shape="41.56,154.32 38.16,151.78 36.55,149.36"/>
    </edge>
    <edge id="-23608381#1" from="255689212" to="9787404395" priority="1" type="highway.service" shape="22.26,225.61 59.34,207.04 62.33,204.52 63.46,200.96 63.57,189.41 63.60,168.27 62.82,166.20 62.19,164.52 60.29,162.02 45.88,154.99">
        <lane id="-23608381#1_0" index="0" allow="pedestrian delivery bicycle" speed="5.56" length="93.55" shape="27.58,221.15 58.45,205.70 60.95,203.60 61.86,200.71 61.97,189.40 62.00,168.56 61.32,166.76 60.77,165.30 59.24,163.29 46.14,156.90"/>
    </edge>
    <edge id="-592846449#0" from="9787404396" to="288300355" priority="1" type="highway.service" shape="46.22,98.67 114.67,99.32 157.67,99.55 183.32,99.75 211.20,99.96 238.63,100.36 241.00,100.31 267.10,100.49 283.05,100.90 289.34,100.95 300.02,97.36">
        <lane id="-592846449#0_0" index="0" allow="pedestrian delivery bicycle" speed="5.56" length="251.35" shape="48.75,97.10 114.69,97.72 157.68,97.95 183.33,98.15 211.22,98.36 238.65,98.76 240.99,98.71 267.13,98.89 283.07,99.30 289.09,99.35 299.51,95.84"/>
    </edge>
    <edge id="-592846449#1" from="288300445" to="9787404396" priority="1" type="highway.service">
        <lane id="-592846449#1_0" index="0" allow="pedestrian delivery bicycle" speed="5.56" length="3.90" shape="39.83,97.03 43.73,97.05"/>
    </edge>
    <edge id="-592846449#2" from="288300358" to="288300445" priority="1" type="highway.service">
        <lane id="-592846449#2_0" index="0" allow="pedestrian delivery bicycle" speed="5.56" length="2.14" shape="28.24,96.91 30.38,96.94"/>
    </edge>
    <edge id="1065782040#0" from="9787404380" to="9787404381" priority="1" type="highway.footway" spreadType="center">
        <lane id="1065782040#0_0" index="0" allow="pedestrian" speed="2.78" length="4.90" width="2.00" shape="38.41,9.32 38.49,14.22"/>
    </edge>
    <edge id="1065782040#1" from="9787404381" to="11786843007" priority="1" type="highway.footway" spreadType="center" shape="38.54,16.70 46.60,35.38 46.47,58.11">
        <lane id="1065782040#1_0" index="0" allow="pedestrian" speed="2.78" length="36.93" width="2.00" shape="39.74,19.48 46.60,35.38 46.48,55.00"/>
    </edge>
    <edge id="1065782040#2" from="11786843007" to="9787404396" priority="1" type="highway.footway" spreadType="center">
        <lane id="1065782040#2_0" index="0" allow="pedestrian" speed="2.78" length="33.74" width="2.00" shape="46.45,60.23 46.25,93.97"/>
    </edge>
    <edge id="1065782040#3" from="9787404396" to="9787404395" priority="1" type="highway.footway" spreadType="center">
        <lane id="1065782040#3_0" index="0" allow="pedestrian" speed="2.78" length="45.95" width="2.00" shape="46.19,103.38 45.92,149.33"/>
    </edge>
    <edge id="1065782041" from="9787404381" to="9787404397" priority="1" type="highway.footway" spreadType="center">
        <lane id="1065782041_0" index="0" allow="pedestrian" speed="2.78" length="32.89" width="2.00" shape="41.57,16.72 74.47,16.97"/>
    </edge>
    <edge id="1269036041" from="11786843007" to="11786843008" priority="1" type="highway.footway" spreadType="center" shape="46.47,58.11 65.63,48.72 65.71,41.01 74.32,41.02">
        <lane id="1269036041_0" index="0" allow="pedestrian" speed="2.78" length="34.55" width="2.00" shape="49.26,56.74 65.63,48.72 65.71,41.01 74.32,41.02"/>
    </edge>
    <edge id="23608372#0" from="255689150" to="255689212" priority="1" type="highway.service" shape="0.17,336.77 0.00,323.64 0.99,317.81 15.41,294.84 18.13,290.51 21.59,276.71 22.26,225.61">
        <lane id="23608372#0_0" index="0" allow="pedestrian delivery bicycle" speed="5.56" length="113.21" shape="-1.43,336.79 -1.60,323.51 -0.53,317.23 14.05,293.99 16.64,289.88 19.99,276.50 20.61,229.03"/>
    </edge>
    <edge id="23608372#1" from="255689212" to="255689174" priority="1" type="highway.service">
        <lane id="23608372#1_0" index="0" allow="pedestrian delivery bicycle" speed="5.56" length="53.68" shape="20.74,218.84 21.39,165.17"/>
    </edge>
    <edge id="23608372#2" from="255689174" to="288300358" priority="1" type="highway.service">
        <lane id="23608372#2_0" index="0" allow="pedestrian delivery bicycle" speed="5.56" length="44.61" shape="21.53,147.77 21.87,103.16"/>
    </edge>
    <edge id="23608372#3" from="288300358" to="1341209731" priority="1" type="highway.service" shape="23.50,98.46 24.64,31.65 30.44,24.84">
        <lane id="23608372#3_0" index="0" allow="pedestrian delivery bicycle" speed="5.56" length="67.24" shape="21.98,93.71 23.05,31.05 26.01,27.57"/>
    </edge>
    <edge id="23608372#4" from="1341209731" to="255689154" priority="1" type="highway.service" shape="30.44,24.84 31.03,11.92 31.09,9.24 31.03,0.00">
        <lane id="23608372#4_0" index="0" allow="pedestrian delivery bicycle" speed="5.56" length="21.85" shape="28.98,21.85 29.43,11.85 29.49,9.23 29.43,0.01"/>
    </edge>
    <edge id="23608374#0" from="1341209731" to="288300445" priority="1" type="highway.service" shape="30.44,24.84 35.74,30.12 35.06,98.59">
        <lane id="23608374#0_0" index="0" allow="pedestrian delivery bicycle" speed="5.56" length="67.64" shape="35.09,27.20 37.35,29.46 36.71,93.90"/>
    </edge>
    <edge id="23608374#1" from="288300445" to="255689209" priority="1" type="highway.service">
        <lane id="23608374#1_0" index="0" allow="pedestrian delivery bicycle" speed="5.56" length="32.71" shape="36.71,103.33 37.02,136.04"/>
    </edge>
    <edge id="23608374#2" from="255689209" to="255689174" priority="1" type="highway.service">
        <lane id="23608374#2_0" index="0" allow="pedestrian delivery bicycle" speed="5.56" length="1.30" shape="31.86,148.98 31.28,150.13"/>
    </edge>
    <edge id="23608381#0" from="255689209" to="9787404395" priority="1" type="highway.service" shape="35.45,138.34 36.25,146.01 39.34,150.67 43.76,153.96 45.88,154.99">
        <lane id="23608381#0_0" index="0" allow="pedestrian delivery bicycle" speed="5.56" length="3.89" shape="40.07,148.87 40.52,149.55 42.99,151.39"/>
    </edge>
    <edge id="23608381#1" from="9787404395" to="255689212" priority="1" type="highway.service" shape="45.88,154.99 60.29,162.02 62.19,164.52 62.82,166.20 63.60,168.27 63.57,189.41 63.46,200.96 62.33,204.52 59.34,207.04 22.26,225.61">
        <lane id="23608381#1_0" index="0" allow="pedestrian delivery bicycle" speed="5.56" length="100.77" shape="47.55,154.02 61.33,160.75 63.60,163.74 64.31,165.64 65.20,167.98 65.17,189.42 65.06,201.22 63.72,205.45 60.22,208.39 29.01,224.02"/>
    </edge>
    <edge id="592846449#0" from="288300355" to="9787404396" priority="1" type="highway.service" shape="300.02,97.36 289.34,100.95 283.05,100.90 267.10,100.49 241.00,100.31 238.63,100.36 211.20,99.96 183.32,99.75 157.67,99.55 114.67,99.32 46.22,98.67">
        <lane id="592846449#0_0" index="0" allow="pedestrian delivery bicycle" speed="5.56" length="252.43" shape="300.53,98.88 289.60,102.55 283.02,102.50 267.07,102.09 240.99,101.91 238.64,101.96 211.18,101.56 183.30,101.35 157.66,101.15 114.66,100.92 48.72,100.30"/>
    </edge>
    <edge id="592846449#1" from="9787404396" to="288300445" priority="1" type="highway.service">
        <lane id="592846449#1_0" index="0" allow="pedestrian delivery bicycle" speed="5.56" length="3.90" shape="43.71,100.25 39.80,100.23"/>
    </edge>
    <edge id="592846449#2" from="288300445" to="288300358" priority="1" type="highway.service">
        <lane id="592846449#2_0" index="0" allow="pedestrian delivery bicycle" speed="5.56" length="2.14" shape="30.34,100.14 28.20,100.11"/>
    </edge>

    <junction id="11786843007" type="dead_end" x="46.47" y="58.11" incLanes="1065782040#1_0" intLanes="" shape="49.70,57.64 48.82,55.84 48.07,56.04 47.81,55.96 47.63,55.76 47.52,55.44 47.48,55.00 45.48,54.99 45.45,60.22 47.45,60.24 47.71,59.28 48.02,58.84 48.46,58.41 49.02,58.02"/>
    <junction id="11786843008" type="dead_end" x="74.32" y="41.02" incLanes="1269036041_0" intLanes="" shape="74.33,40.02 74.32,42.02"/>