<?xml version='1.0' encoding='utf-8'?>
<routes><vType id="vehicle" vClass="delivery" carFollowModel="IDM" accel="2.0" decel="3.0" tau="1.0" minGap="2.5" maxSpeed="27.77777777777778" /><route id="route_16" edges="-413799403#2 -413799403#1" /><vehicle id="veh_16" type="vehicle" route="route_16" depart="0" departLane="best" departSpeed="12.50" /><route id="route_20" edges="-675877705 -592846446#1" /><vehicle id="veh_20" type="vehicle" route="route_20" depart="0" departLane="best" departSpeed="0.77" /><route id="route_23" edges="592846449#3 -592846449#3" /><vehicle id="veh_23" type="vehicle" route="route_23" depart="0" departLane="best" departSpeed="8.54" /></routes>