<?xml version='1.0' encoding='utf-8'?>
<routes><vType id="vehicle" vClass="delivery" carFollowModel="IDM" accel="2.0" decel="3.0" tau="1.0" minGap="2.5" maxSpeed="5.555555555555555" /><route id="route_10" edges="-413799403#0 413799403#0" /><vehicle id="veh_10" type="vehicle" route="route_10" depart="0" departPos="214.92" departLane="best" departSpeed="5.56" /><route id="route_1" edges="-413799403#0 413799403#0" /><vehicle id="veh_1" type="vehicle" route="route_1" depart="0" departPos="311.65" departLane="best" departSpeed="0.77" /><route id="route_2" edges="-413799403#0 413799403#0" /><vehicle id="veh_2" type="vehicle" route="route_2" depart="0" departPos="311.65" departLane="best" departSpeed="0.77" /><route id="route_3" edges="-413799403#0 413799403#0" /><vehicle id="veh_3" type="vehicle" route="route_3" depart="0" departPos="311.65" departLane="best" departSpeed="0.77" /><route id="route_4" edges="-413799403#0 413799403#0" /><vehicle id="veh_4" type="vehicle" route="route_4" depart="0" departPos="311.65" departLane="best" departSpeed="0.77" /><route id="route_5" edges="-413799403#0 413799403#0" /><vehicle id="veh_5" type="vehicle" route="route_5" depart="0" departPos="311.65" departLane="best" departSpeed="0.77" /><route id="route_6" edges="-413799403#0 413799403#0" /><vehicle id="veh_6" type="vehicle" route="route_6" depart="0" departPos="311.65" departLane="best" departSpeed="0.77" /><route id="route_7" edges="-413799403#0 413799403#0" /><vehicle id="veh_7" type="vehicle" route="route_7" depart="0" departPos="311.65" departLane="best" departSpeed="0.77" /><route id="route_8" edges="-413799403#0 413799403#0" /><vehicle id="veh_8" type="vehicle" route="route_8" depart="0" departPos="233.33" departLane="best" departSpeed="5.56" /><route id="route_9" edges="-413799403#0 413799403#0" /><vehicle id="veh_9" type="vehicle" route="route_9" depart="0" departPos="214.92" departLane="best" departSpeed="5.56" /><route id="route_11" edges="-413799403#0 413799403#0" /><vehicle id="veh_11" type="vehicle" route="route_11" depart="0" departPos="214.92" departLane="best" departSpeed="5.56" /><route id="route_12" edges="-413799403#0 413799403#0" /><vehicle id="veh_12" type="vehicle" route="route_12" depart="0" departPos="214.92" departLane="best" departSpeed="5.56" /><route id="route_13" edges="-413799403#0 413799403#0" /><vehicle id="veh_13" type="vehicle" route="route_13" depart="0" departPos="218.86" departLane="best" departSpeed="3.33" /><route id="route_14" edges="-413799403#0 413799403#0" /><vehicle id="veh_14" type="vehicle" route="route_14" depart="0" departPos="229.88" departLane="best" departSpeed="5.56" /><route id="route_15" edges="-413799403#0 413799403#0" /><vehicle id="veh_15" type="vehicle" route="route_15" depart="0" departPos="311.65" departLane="best" departSpeed="0.77" /><route id="route_17" edges="-413799403#2 -675877705" /><vehicle id="veh_17" type="vehicle" route="route_17" depart="0" departPos="64.46" departLane="best" departSpeed="5.56" /><route id="route_18" edges="-413799403#2 -413799403#1" /><vehicle id="veh_18" type="vehicle" route="route_18" depart="0" departPos="79.14" departLane="best" departSpeed="5.56" /><route id="route_19" edges="-413799403#1 -413799403#0" /><vehicle id="veh_19" type="vehicle" route="route_19" depart="0" departPos="0.10" departLane="best" departSpeed="0.77" /><route id="route_16" edges="-413799403#2 -675877705" /><vehicle id="veh_16" type="vehicle" route="route_16" depart="0" departPos="51.47" departLane="best" departSpeed="5.56" /><route id="route_20" edges="-675877705 -592846446#1" /><vehicle id="veh_20" type="vehicle" route="route_20" depart="0" departPos="0.10" departLane="best" departSpeed="0.77" /><route id="route_21" edges="592846449#1 -592846449#1" /><vehicle id="veh_21" type="vehicle" route="route_21" depart="0" departPos="0.10" departLane="best" departSpeed="0.77" /><route id="route_22" edges="592846449#2 592846449#3" /><vehicle id="veh_22" type="vehicle" route="route_22" depart="0" departPos="6.43" departLane="best" departSpeed="0.77" /><route id="route_23" edges="592846449#3 -592846449#3" /><vehicle id="veh_23" type="vehicle" route="route_23" depart="0" departPos="4.61" departLane="best" departSpeed="5.56" /><route id="route_24" edges="592846449#3 592846449#4" /><vehicle id="veh_24" type="vehicle" route="route_24" depart="0" departPos="16.67" departLane="best" departSpeed="0.77" /><route id="route_25" edges="592846446#1 675877705" /><vehicle id="veh_25" type="vehicle" route="route_25" depart="0" departPos="2.80" departLane="best" departSpeed="0.77" /><route id="route_26" edges="413799403#2 592846446#0" /><vehicle id="veh_26" type="vehicle" route="route_26" depart="0" departPos="12.58" departLane="best" departSpeed="5.56" /><route id="route_27" edges="592846446#1 675877705" /><vehicle id="veh_27" type="vehicle" route="route_27" depart="0" departPos="2.80" departLane="best" departSpeed="0.77" /><route id="route_b6225d26-18b8-45d5-aa96-ca2f142692cf" edges="-592846446#0 -413799403#2" /><vehicle id="veh_b6225d26-18b8-45d5-aa96-ca2f142692cf" type="vehicle" route="route_b6225d26-18b8-45d5-aa96-ca2f142692cf" depart="0" departPos="79.28" departLane="best" departSpeed="0.77" /><route id="route_78d2d987-a03b-4967-97cd-5eb1398e6285" edges="-592846446#0 592846446#0" /><vehicle id="veh_78d2d987-a03b-4967-97cd-5eb1398e6285" type="vehicle" route="route_78d2d987-a03b-4967-97cd-5eb1398e6285" depart="0" departPos="79.28" departLane="best" departSpeed="0.77" /><route id="route_ff3c4caf-0a6e-48bf-a90d-d341fc637713" edges="-592846446#0 592846446#0" /><vehicle id="veh_ff3c4caf-0a6e-48bf-a90d-d341fc637713" type="vehicle" route="route_ff3c4caf-0a6e-48bf-a90d-d341fc637713" depart="0" departPos="79.28" departLane="best" departSpeed="0.77" /><route id="route_16cef614-27e3-4b5a-80f9-9bf3ddde5f64" edges="-592846446#0 -413799403#2" /><vehicle id="veh_16cef614-27e3-4b5a-80f9-9bf3ddde5f64" type="vehicle" route="route_16cef614-27e3-4b5a-80f9-9bf3ddde5f64" depart="0" departPos="79.28" departLane="best" departSpeed="0.77" /><route id="route_321cca65-85aa-4871-8340-477ef21a0889" edges="-592846446#0 592846446#0" /><vehicle id="veh_321cca65-85aa-4871-8340-477ef21a0889" type="vehicle" route="route_321cca65-85aa-4871-8340-477ef21a0889" depart="0" departPos="79.28" departLane="best" departSpeed="0.77" /><route id="route_86caf304-fcda-4d3e-b4eb-ff0224db7111" edges="-592846446#0 592846446#0" /><vehicle id="veh_86caf304-fcda-4d3e-b4eb-ff0224db7111" type="vehicle" route="route_86caf304-fcda-4d3e-b4eb-ff0224db7111" depart="0" departPos="79.28" departLane="best" departSpeed="0.77" /><route id="route_dd3cb913-c765-4fbd-a8f2-c3a4f6b93923" edges="-592846446#0 -413799403#2" /><vehicle id="veh_dd3cb913-c765-4fbd-a8f2-c3a4f6b93923" type="vehicle" route="route_dd3cb913-c765-4fbd-a8f2-c3a4f6b93923" depart="0" departPos="79.28" departLane="best" departSpeed="0.77" /><route id="route_5f94dcce-f755-4c16-9159-c23d2c98e6b3" edges="-592846446#0 592846446#0" /><vehicle id="veh_5f94dcce-f755-4c16-9159-c23d2c98e6b3" type="vehicle" route="route_5f94dcce-f755-4c16-9159-c23d2c98e6b3" depart="0" departPos="79.28" departLane="best" departSpeed="0.77" /><route id="route_59563556-f2c3-4ad2-9ba9-4ecda0753172" edges="-592846446#0 592846446#0" /><vehicle id="veh_59563556-f2c3-4ad2-9ba9-4ecda0753172" type="vehicle" route="route_59563556-f2c3-4ad2-9ba9-4ecda0753172" depart="0" departPos="79.28" departLane="best" departSpeed="0.77" /><route id="route_aa90fec5-4e0e-4ad2-85c4-99f429a3b4d2" edges="-592846446#0 592846446#0" /><vehicle id="veh_aa90fec5-4e0e-4ad2-85c4-99f429a3b4d2" type="vehicle" route="route_aa90fec5-4e0e-4ad2-85c4-99f429a3b4d2" depart="0" departPos="79.28" departLane="best" departSpeed="0.77" /><route id="route_4ff6e212-5768-4da4-bea9-a785f0f40727" edges="-592846446#0 592846446#0" /><vehicle id="veh_4ff6e212-5768-4da4-bea9-a785f0f40727" type="vehicle" route="route_4ff6e212-5768-4da4-bea9-a785f0f40727" depart="0" departPos="79.28" departLane="best" departSpeed="0.77" /><route id="route_e8b5dc9a-5749-49d6-927e-1884dc3d3cb5" edges="-592846446#0 -413799403#2" /><vehicle id="veh_e8b5dc9a-5749-49d6-927e-1884dc3d3cb5" type="vehicle" route="route_e8b5dc9a-5749-49d6-927e-1884dc3d3cb5" depart="0" departPos="79.28" departLane="best" departSpeed="0.77" /><route id="route_e56566d4-a5f0-4d1f-83e5-85de4bfda59b" edges="-592846446#0 -413799403#2" /><vehicle id="veh_e56566d4-a5f0-4d1f-83e5-85de4bfda59b" type="vehicle" route="route_e56566d4-a5f0-4d1f-83e5-85de4bfda59b" depart="0" departPos="79.28" departLane="best" departSpeed="0.77" /><route id="route_6459dab1-9d9f-49c5-a66b-b2ecd7140dfa" edges="-592846446#0 -413799403#2" /><vehicle id="veh_6459dab1-9d9f-49c5-a66b-b2ecd7140dfa" type="vehicle" route="route_6459dab1-9d9f-49c5-a66b-b2ecd7140dfa" depart="0" departPos="79.28" departLane="best" departSpeed="0.77" /><route id="route_839753f5-70af-4e11-a077-9d38f4021fe6" edges="-592846446#0 -413799403#2" /><vehicle id="veh_839753f5-70af-4e11-a077-9d38f4021fe6" type="vehicle" route="route_839753f5-70af-4e11-a077-9d38f4021fe6" depart="0" departPos="79.28" departLane="best" departSpeed="0.77" /><route id="route_d5e81ffa-383d-478f-a017-489f849eebbd" edges="-592846446#0 592846446#0" /><vehicle id="veh_d5e81ffa-383d-478f-a017-489f849eebbd" type="vehicle" route="route_d5e81ffa-383d-478f-a017-489f849eebbd" depart="0" departPos="79.28" departLane="best" departSpeed="0.77" /><route id="route_b75067fe-1f5d-4544-988c-4143987e2ee8" edges="-592846446#0 -413799403#2" /><vehicle id="veh_b75067fe-1f5d-4544-988c-4143987e2ee8" type="vehicle" route="route_b75067fe-1f5d-4544-988c-4143987e2ee8" depart="0" departPos="79.28" departLane="best" departSpeed="0.77" /><route id="route_3db6e4b6-208e-487f-a65e-57d5978965b6" edges="-592846446#0 592846446#0" /><vehicle id="veh_3db6e4b6-208e-487f-a65e-57d5978965b6" type="vehicle" route="route_3db6e4b6-208e-487f-a65e-57d5978965b6" depart="0" departPos="79.28" departLane="best" departSpeed="0.77" /><route id="route_fbd22d6f-87d5-47f7-acda-3c351df15b77" edges="-592846446#0 592846446#0" /><vehicle id="veh_fbd22d6f-87d5-47f7-acda-3c351df15b77" type="vehicle" route="route_fbd22d6f-87d5-47f7-acda-3c351df15b77" depart="0" departPos="79.28" departLane="best" departSpeed="0.77" /><route id="route_a0cce44d-cbd8-4ebc-9362-7449e792988c" edges="-592846446#0 -413799403#2" /><vehicle id="veh_a0cce44d-cbd8-4ebc-9362-7449e792988c" type="vehicle" route="route_a0cce44d-cbd8-4ebc-9362-7449e792988c" depart="0" departPos="79.28" departLane="best" departSpeed="0.77" /><route id="route_55c00c5a-6ca8-470d-9176-d367a3a436d8" edges="-592846446#0 592846446#0" /><vehicle id="veh_55c00c5a-6ca8-470d-9176-d367a3a436d8" type="vehicle" route="route_55c00c5a-6ca8-470d-9176-d367a3a436d8" depart="0" departPos="79.28" departLane="best" departSpeed="0.77" /><route id="route_32ebabd8-4468-45db-8e78-cd516645a4f7" edges="-592846446#0 -413799403#2" /><vehicle id="veh_32ebabd8-4468-45db-8e78-cd516645a4f7" type="vehicle" route="route_32ebabd8-4468-45db-8e78-cd516645a4f7" depart="0" departPos="79.28" departLane="best" departSpeed="0.77" /><route id="route_8d329640-2eb6-4f2c-bd26-ef101cc1ed3c" edges="-592846446#0 -413799403#2" /><vehicle id="veh_8d329640-2eb6-4f2c-bd26-ef101cc1ed3c" type="vehicle" route="route_8d329640-2eb6-4f2c-bd26-ef101cc1ed3c" depart="0" departPos="79.28" departLane="best" departSpeed="0.77" /><route id="route_15717487-c5ce-486a-b00d-da222c222c6f" edges="-592846446#0 -413799403#2" /><vehicle id="veh_15717487-c5ce-486a-b00d-da222c222c6f" type="vehicle" route="route_15717487-c5ce-486a-b00d-da222c222c6f" depart="0" departPos="79.28" departLane="best" departSpeed="0.77" /><route id="route_7e65fd47-bb0c-4e81-8c2c-0ff663eaa431" edges="-592846446#0 592846446#0" /><vehicle id="veh_7e65fd47-bb0c-4e81-8c2c-0ff663eaa431" type="vehicle" route="route_7e65fd47-bb0c-4e81-8c2c-0ff663eaa431" depart="0" departPos="79.28" departLane="best" departSpeed="0.77" /><route id="route_ae44f8d0-7497-487a-b556-1bbd498408cc" edges="-592846446#0 592846446#0" /><vehicle id="veh_ae44f8d0-7497-487a-b556-1bbd498408cc" type="vehicle" route="route_ae44f8d0-7497-487a-b556-1bbd498408cc" depart="0" departPos="79.28" departLane="best" departSpeed="0.77" /><route id="route_fa2e498d-0a89-4623-a1d0-1cc25b1dc6bb" edges="-592846446#0 592846446#0" /><vehicle id="veh_fa2e498d-0a89-4623-a1d0-1cc25b1dc6bb" type="vehicle" route="route_fa2e498d-0a89-4623-a1d0-1cc25b1dc6bb" depart="0" departPos="79.28" departLane="best" departSpeed="0.77" /><route id="route_e2821229-64eb-4ff5-b8d4-e52f3ab4b3ac" edges="-592846446#0 -413799403#2" /><vehicle id="veh_e2821229-64eb-4ff5-b8d4-e52f3ab4b3ac" type="vehicle" route="route_e2821229-64eb-4ff5-b8d4-e52f3ab4b3ac" depart="0" departPos="79.28" departLane="best" departSpeed="0.77" /><route id="route_940f20f7-bd91-40f2-9061-a7e8d08fbd6f" edges="-592846446#0 -413799403#2" /><vehicle id="veh_940f20f7-bd91-40f2-9061-a7e8d08fbd6f" type="vehicle" route="route_940f20f7-bd91-40f2-9061-a7e8d08fbd6f" depart="0" departPos="79.28" departLane="best" departSpeed="0.77" /><route id="route_6c1bab7d-7f35-4d02-972e-b43070211ac2" edges="-592846446#0 592846446#0" /><vehicle id="veh_6c1bab7d-7f35-4d02-972e-b43070211ac2" type="vehicle" route="route_6c1bab7d-7f35-4d02-972e-b43070211ac2" depart="0" departPos="79.28" departLane="best" departSpeed="0.77" /><route id="route_d9fb3541-0b98-44ec-b9f8-ba2ee0560e3e" edges="-592846446#0 592846446#0" /><vehicle id="veh_d9fb3541-0b98-44ec-b9f8-ba2ee0560e3e" type="vehicle" route="route_d9fb3541-0b98-44ec-b9f8-ba2ee0560e3e" depart="0" departPos="79.28" departLane="best" departSpeed="0.77" /><route id="route_c69b499b-dfd6-4f01-ba57-3e2dbb4e477b" edges="-592846446#0 -413799403#2" /><vehicle id="veh_c69b499b-dfd6-4f01-ba57-3e2dbb4e477b" type="vehicle" route="route_c69b499b-dfd6-4f01-ba57-3e2dbb4e477b" depart="0" departPos="79.28" departLane="best" departSpeed="0.77" /></routes>